<?xml version="1.0" encoding="UTF-8"?>

<!-- generated on 2023-02-02 02:26:45 by Eclipse SUMO netedit Version 1.14.1
<configuration xmlns:xsi="http://www.w3.org/2001/XMLSchema-instance" xsi:noNamespaceSchemaLocation="http://sumo.dlr.de/xsd/netconvertConfiguration.xsd">

    <input>
        <sumo-net-file value="osm.net.xml"/>
    </input>

    <output>
        <output-file value="osm.net.xml"/>
    </output>

    <processing>
        <geometry.min-radius.fix.railways value="false"/>
        <geometry.max-grade.fix value="false"/>
        <offset.disable-normalization value="true"/>
        <lefthand value="false"/>
    </processing>

    <junctions>
        <no-turnarounds value="true"/>
        <junctions.corner-detail value="5"/>
        <junctions.limit-turn-speed value="5.5"/>
        <rectangular-lane-cut value="false"/>
    </junctions>

    <pedestrian>
        <walkingareas value="false"/>
    </pedestrian>

</configuration>
-->

<net version="1.9" junctionCornerDetail="5" limitTurnSpeed="5.50" xmlns:xsi="http://www.w3.org/2001/XMLSchema-instance" xsi:noNamespaceSchemaLocation="http://sumo.dlr.de/xsd/net_file.xsd">

    <location netOffset="-514751.34,-5386530.22" convBoundary="0.00,1985.40,15828.51,7357.37" origBoundary="9.168775,48.510114,9.477875,48.723887" projParameter="+proj=utm +zone=32 +ellps=WGS84 +datum=WGS84 +units=m +no_defs"/>

    <type id="highway.bridleway" priority="1" numLanes="1" speed="2.78" allow="pedestrian" oneway="1" width="2.00"/>
    <type id="highway.bus_guideway" priority="1" numLanes="1" speed="27.78" allow="bus" oneway="1"/>
    <type id="highway.cycleway" priority="1" numLanes="1" speed="5.56" allow="bicycle" oneway="0" width="1.00"/>
    <type id="highway.footway" priority="1" numLanes="1" speed="2.78" allow="pedestrian" oneway="1" width="2.00"/>
    <type id="highway.ford" priority="1" numLanes="1" speed="2.78" allow="army" oneway="0"/>
    <type id="highway.living_street" priority="2" numLanes="1" speed="2.78" disallow="tram rail_urban rail rail_electric rail_fast ship" oneway="0"/>
    <type id="highway.motorway" priority="14" numLanes="2" speed="39.44" allow="private emergency authority army vip passenger hov taxi bus coach delivery truck trailer motorcycle evehicle custom1 custom2" oneway="1"/>
    <type id="highway.motorway_link" priority="9" numLanes="1" speed="22.22" allow="private emergency authority army vip passenger hov taxi bus coach delivery truck trailer motorcycle evehicle custom1 custom2" oneway="1"/>
    <type id="highway.path" priority="1" numLanes="1" speed="5.56" allow="pedestrian bicycle" oneway="0" width="2.00"/>
    <type id="highway.pedestrian" priority="1" numLanes="1" speed="2.78" allow="pedestrian" oneway="1" width="2.00"/>
    <type id="highway.primary" priority="12" numLanes="2" speed="27.78" disallow="tram rail_urban rail rail_electric rail_fast ship" oneway="0"/>
    <type id="highway.primary_link" priority="7" numLanes="1" speed="22.22" disallow="tram rail_urban rail rail_electric rail_fast ship" oneway="0"/>
    <type id="highway.raceway" priority="15" numLanes="2" speed="83.33" allow="vip" oneway="0"/>
    <type id="highway.residential" priority="3" numLanes="1" speed="13.89" disallow="tram rail_urban rail rail_electric rail_fast ship" oneway="0"/>
    <type id="highway.secondary" priority="11" numLanes="1" speed="27.78" disallow="tram rail_urban rail rail_electric rail_fast ship" oneway="0"/>
    <type id="highway.secondary_link" priority="6" numLanes="1" speed="22.22" disallow="tram rail_urban rail rail_electric rail_fast ship" oneway="0"/>
    <type id="highway.service" priority="1" numLanes="1" speed="5.56" allow="pedestrian delivery bicycle" oneway="0"/>
    <type id="highway.stairs" priority="1" numLanes="1" speed="1.39" allow="pedestrian" oneway="1" width="2.00"/>
    <type id="highway.step" priority="1" numLanes="1" speed="1.39" allow="pedestrian" oneway="1" width="2.00"/>
    <type id="highway.steps" priority="1" numLanes="1" speed="1.39" allow="pedestrian" oneway="1" width="2.00"/>
    <type id="highway.tertiary" priority="10" numLanes="1" speed="22.22" disallow="tram rail_urban rail rail_electric rail_fast ship" oneway="0"/>
    <type id="highway.tertiary_link" priority="5" numLanes="1" speed="22.22" disallow="tram rail_urban rail rail_electric rail_fast ship" oneway="0"/>
    <type id="highway.track" priority="1" numLanes="1" speed="5.56" allow="pedestrian motorcycle moped bicycle" oneway="0"/>
    <type id="highway.trunk" priority="13" numLanes="2" speed="27.78" disallow="pedestrian bicycle tram rail_urban rail rail_electric rail_fast ship" oneway="0"/>
    <type id="highway.trunk_link" priority="8" numLanes="1" speed="22.22" disallow="pedestrian bicycle tram rail_urban rail rail_electric rail_fast ship" oneway="0"/>
    <type id="highway.unclassified" priority="4" numLanes="1" speed="13.89" disallow="tram rail_urban rail rail_electric rail_fast ship" oneway="0"/>
    <type id="highway.unsurfaced" priority="1" numLanes="1" speed="8.33" disallow="tram rail_urban rail rail_electric rail_fast ship" oneway="0"/>
    <type id="railway.highspeed" priority="21" numLanes="1" speed="69.44" allow="rail_fast" oneway="1"/>
    <type id="railway.light_rail" priority="19" numLanes="1" speed="27.78" allow="rail_urban" oneway="1"/>
    <type id="railway.preserved" priority="16" numLanes="1" speed="27.78" allow="rail" oneway="1"/>
    <type id="railway.rail" priority="20" numLanes="1" speed="44.44" allow="rail" oneway="1"/>
    <type id="railway.subway" priority="18" numLanes="1" speed="27.78" allow="rail_urban" oneway="1"/>
    <type id="railway.tram" priority="17" numLanes="1" speed="13.89" allow="tram" oneway="1"/>

    <edge id=":1141217989_0" function="internal">
        <lane id=":1141217989_0_0" index="0" allow="private emergency authority army vip passenger hov taxi bus coach delivery truck trailer motorcycle evehicle custom1 custom2" speed="22.22" length="8.00" shape="11685.52,4215.57 11692.19,4211.17"/>
    </edge>
    <edge id=":1411587455_0" function="internal">
        <lane id=":1411587455_0_0" index="0" allow="private emergency authority army vip passenger hov taxi bus coach delivery truck trailer motorcycle evehicle custom1 custom2" speed="39.44" length="7.96" shape="11135.15,4620.73 11128.45,4625.15"/>
        <lane id=":1411587455_0_1" index="1" allow="private emergency authority army vip passenger hov taxi bus coach delivery truck trailer motorcycle evehicle custom1 custom2" speed="39.44" length="7.96" shape="11133.36,4618.08 11126.72,4622.46"/>
        <lane id=":1411587455_0_2" index="2" allow="private emergency authority army vip passenger hov taxi bus coach delivery truck trailer motorcycle evehicle custom1 custom2" speed="39.44" length="7.96" shape="11131.57,4615.43 11124.99,4619.77"/>
    </edge>
    <edge id=":150681992_0" function="internal">
        <lane id=":150681992_0_0" index="0" allow="private emergency authority army vip passenger hov taxi bus coach delivery truck trailer motorcycle evehicle custom1 custom2" speed="39.44" length="8.00" shape="14272.62,2500.43 14280.31,2498.22"/>
        <lane id=":150681992_0_1" index="1" allow="private emergency authority army vip passenger hov taxi bus coach delivery truck trailer motorcycle evehicle custom1 custom2" speed="39.44" length="8.00" shape="14273.51,2503.51 14281.20,2501.30"/>
        <lane id=":150681992_0_2" index="2" allow="private emergency authority army vip passenger hov taxi bus coach delivery truck trailer motorcycle evehicle custom1 custom2" speed="39.44" length="8.00" shape="14274.40,2506.58 14282.08,2504.38"/>
    </edge>
    <edge id=":150682013_0" function="internal">
        <lane id=":150682013_0_0" index="0" allow="private emergency authority army vip passenger hov taxi bus coach delivery truck trailer motorcycle evehicle custom1 custom2" speed="39.44" length="8.00" shape="14746.21,2364.62 14753.88,2362.44"/>
        <lane id=":150682013_0_1" index="1" allow="private emergency authority army vip passenger hov taxi bus coach delivery truck trailer motorcycle evehicle custom1 custom2" speed="39.44" length="8.00" shape="14747.08,2367.70 14754.77,2365.51"/>
        <lane id=":150682013_0_2" index="2" allow="private emergency authority army vip passenger hov taxi bus coach delivery truck trailer motorcycle evehicle custom1 custom2" speed="39.44" length="8.00" shape="14747.94,2370.78 14755.67,2368.58"/>
    </edge>
    <edge id=":150901112-AddedOnRampNode_0" function="internal">
        <lane id=":150901112-AddedOnRampNode_0_0" index="0" allow="private emergency authority army vip passenger hov taxi bus coach delivery truck trailer motorcycle evehicle custom1 custom2" speed="22.22" length="8.00" shape="11769.57,4161.41 11776.41,4157.26"/>
    </edge>
    <edge id=":1637666711_0" function="internal">
        <lane id=":1637666711_0_0" index="0" allow="private emergency authority army vip passenger hov taxi bus coach delivery truck trailer motorcycle evehicle custom1 custom2" speed="39.44" length="2.81" shape="10788.73,4810.63 10790.98,4809.03"/>
        <lane id=":1637666711_0_1" index="1" allow="private emergency authority army vip passenger hov taxi bus coach delivery truck trailer motorcycle evehicle custom1 custom2" speed="39.44" length="2.81" shape="10790.54,4813.27 10792.88,4811.60"/>
    </edge>
    <edge id=":1637666711_2" function="internal">
        <lane id=":1637666711_2_0" index="0" allow="private emergency authority army vip passenger hov taxi bus coach delivery truck trailer motorcycle evehicle custom1 custom2" speed="39.44" length="3.10" shape="10792.35,4815.91 10794.83,4814.24"/>
        <lane id=":1637666711_2_1" index="1" allow="private emergency authority army vip passenger hov taxi bus coach delivery truck trailer motorcycle evehicle custom1 custom2" speed="39.44" length="3.10" shape="10794.15,4818.55 10796.73,4816.82"/>
        <lane id=":1637666711_2_2" index="2" allow="private emergency authority army vip passenger hov taxi bus coach delivery truck trailer motorcycle evehicle custom1 custom2" speed="39.44" length="3.10" shape="10795.96,4821.19 10798.63,4819.40"/>
    </edge>
    <edge id=":2038313168_0" function="internal">
        <lane id=":2038313168_0_0" index="0" allow="private emergency authority army vip passenger hov taxi bus coach delivery truck trailer motorcycle evehicle custom1 custom2" speed="39.44" length="0.27" shape="13858.72,2648.09 13858.63,2648.12"/>
        <lane id=":2038313168_0_1" index="1" allow="private emergency authority army vip passenger hov taxi bus coach delivery truck trailer motorcycle evehicle custom1 custom2" speed="39.44" length="0.27" shape="13857.69,2645.06 13857.44,2645.15"/>
        <lane id=":2038313168_0_2" index="2" allow="private emergency authority army vip passenger hov taxi bus coach delivery truck trailer motorcycle evehicle custom1 custom2" speed="39.44" length="0.27" shape="13856.65,2642.03 13856.24,2642.18"/>
    </edge>
    <edge id=":2038313279_0" function="internal">
        <lane id=":2038313279_0_0" index="0" allow="private emergency authority army vip passenger hov taxi bus coach delivery truck trailer motorcycle evehicle custom1 custom2" speed="39.44" length="0.30" shape="12169.63,3913.29 12169.90,3913.11"/>
        <lane id=":2038313279_0_1" index="1" allow="private emergency authority army vip passenger hov taxi bus coach delivery truck trailer motorcycle evehicle custom1 custom2" speed="39.44" length="0.30" shape="12171.41,3915.95 12171.65,3915.79"/>
        <lane id=":2038313279_0_2" index="2" allow="private emergency authority army vip passenger hov taxi bus coach delivery truck trailer motorcycle evehicle custom1 custom2" speed="39.44" length="0.30" shape="12173.18,3918.61 12173.41,3918.47"/>
    </edge>
    <edge id=":2038313284_0" function="internal">
        <lane id=":2038313284_0_0" index="0" allow="private emergency authority army vip passenger hov taxi bus coach delivery truck trailer motorcycle evehicle custom1 custom2" speed="39.44" length="8.00" shape="12094.63,3963.24 12101.28,3958.88"/>
        <lane id=":2038313284_0_1" index="1" allow="private emergency authority army vip passenger hov taxi bus coach delivery truck trailer motorcycle evehicle custom1 custom2" speed="39.44" length="8.00" shape="12096.36,3965.93 12103.05,3961.55"/>
        <lane id=":2038313284_0_2" index="2" allow="private emergency authority army vip passenger hov taxi bus coach delivery truck trailer motorcycle evehicle custom1 custom2" speed="39.44" length="8.00" shape="12098.10,3968.62 12104.83,3964.21"/>
    </edge>
    <edge id=":2038313332_0" function="internal">
        <lane id=":2038313332_0_0" index="0" allow="private emergency authority army vip passenger hov taxi bus coach delivery truck trailer motorcycle evehicle custom1 custom2" speed="22.22" length="8.19" shape="11850.85,4164.88 11849.06,4166.49 11848.07,4167.87 11847.08,4169.24 11845.26,4170.82"/>
        <lane id=":2038313332_0_1" index="1" allow="private emergency authority army vip passenger hov taxi bus coach delivery truck trailer motorcycle evehicle custom1 custom2" speed="22.22" length="8.19" shape="11850.85,4164.88 11848.77,4166.07 11847.16,4166.56 11845.53,4167.03 11843.43,4168.19"/>
    </edge>
    <edge id=":2038313436_0" function="internal">
        <lane id=":2038313436_0_0" index="0" allow="private emergency authority army vip passenger hov taxi bus coach delivery truck trailer motorcycle evehicle custom1 custom2" speed="39.44" length="8.27" shape="10967.14,4683.85 10968.90,4682.05 10969.55,4680.28 10970.21,4678.51 10971.96,4676.71"/>
        <lane id=":2038313436_0_1" index="1" allow="private emergency authority army vip passenger hov taxi bus coach delivery truck trailer motorcycle evehicle custom1 custom2" speed="39.44" length="8.27" shape="10967.14,4683.85 10973.76,4679.36"/>
        <lane id=":2038313436_0_2" index="2" allow="private emergency authority army vip passenger hov taxi bus coach delivery truck trailer motorcycle evehicle custom1 custom2" speed="39.44" length="8.27" shape="10968.93,4686.50 10975.56,4682.01"/>
    </edge>
    <edge id=":2038526713_0" function="internal">
        <lane id=":2038526713_0_0" index="0" allow="private emergency authority army vip passenger hov taxi bus coach delivery truck trailer motorcycle evehicle custom1 custom2" speed="30.83" length="3.11" shape="11305.57,4513.01 11302.90,4514.60"/>
    </edge>
    <edge id=":2038526713_1" function="internal">
        <lane id=":2038526713_1_0" index="0" allow="private emergency authority army vip passenger hov taxi bus coach delivery truck trailer motorcycle evehicle custom1 custom2" speed="39.44" length="2.99" shape="11303.69,4510.26 11301.16,4511.92"/>
        <lane id=":2038526713_1_1" index="1" allow="private emergency authority army vip passenger hov taxi bus coach delivery truck trailer motorcycle evehicle custom1 custom2" speed="39.44" length="2.99" shape="11301.92,4507.59 11299.42,4509.23"/>
        <lane id=":2038526713_1_2" index="2" allow="private emergency authority army vip passenger hov taxi bus coach delivery truck trailer motorcycle evehicle custom1 custom2" speed="39.44" length="2.99" shape="11300.15,4504.92 11297.68,4506.54"/>
    </edge>
    <edge id=":2038526735_0" function="internal">
        <lane id=":2038526735_0_0" index="0" allow="private emergency authority army vip passenger hov taxi bus coach delivery truck trailer motorcycle evehicle custom1 custom2" speed="39.44" length="8.12" shape="10872.00,4790.91 10870.14,4792.46 10869.10,4793.81 10868.04,4795.13 10866.14,4796.62"/>
        <lane id=":2038526735_0_1" index="1" allow="private emergency authority army vip passenger hov taxi bus coach delivery truck trailer motorcycle evehicle custom1 custom2" speed="39.44" length="8.12" shape="10870.21,4788.25 10868.38,4789.79 10867.35,4791.12 10866.32,4792.44 10864.44,4793.90"/>
        <lane id=":2038526735_0_2" index="2" allow="private emergency authority army vip passenger hov taxi bus coach delivery truck trailer motorcycle evehicle custom1 custom2" speed="39.44" length="8.12" shape="10868.42,4785.60 10866.61,4787.12 10865.61,4788.44 10864.59,4789.74 10862.75,4791.19"/>
    </edge>
    <edge id=":2038526739_0" function="internal">
        <lane id=":2038526739_0_0" index="0" allow="private emergency authority army vip passenger hov taxi bus coach delivery truck trailer motorcycle evehicle custom1 custom2" speed="39.44" length="8.73" shape="10580.22,4953.94 10581.93,4951.61 10581.82,4949.05 10581.72,4946.49 10583.44,4944.18"/>
        <lane id=":2038526739_0_1" index="1" allow="private emergency authority army vip passenger hov taxi bus coach delivery truck trailer motorcycle evehicle custom1 custom2" speed="39.44" length="8.73" shape="10580.22,4953.94 10582.01,4952.16 10582.69,4950.39 10583.39,4948.63 10585.18,4946.87"/>
        <lane id=":2038526739_0_2" index="2" allow="private emergency authority army vip passenger hov taxi bus coach delivery truck trailer motorcycle evehicle custom1 custom2" speed="39.44" length="8.73" shape="10580.22,4953.94 10586.92,4949.55"/>
        <lane id=":2038526739_0_3" index="3" allow="private emergency authority army vip passenger hov taxi bus coach delivery truck trailer motorcycle evehicle custom1 custom2" speed="39.44" length="8.73" shape="10581.98,4956.61 10588.67,4952.24"/>
        <lane id=":2038526739_0_4" index="4" allow="private emergency authority army vip passenger hov taxi bus coach delivery truck trailer motorcycle evehicle custom1 custom2" speed="39.44" length="8.73" shape="10583.75,4959.28 10590.41,4954.92"/>
    </edge>
    <edge id=":2038566834_0" function="internal">
        <lane id=":2038566834_0_0" index="0" allow="private emergency authority army vip passenger hov taxi bus coach delivery truck trailer motorcycle evehicle custom1 custom2" speed="39.44" length="8.21" shape="7131.71,6898.63 7129.41,6899.32 7127.94,6900.17 7126.47,6901.01 7124.17,6901.72"/>
        <lane id=":2038566834_0_1" index="1" allow="private emergency authority army vip passenger hov taxi bus coach delivery truck trailer motorcycle evehicle custom1 custom2" speed="39.44" length="8.21" shape="7131.11,6895.49 7128.80,6896.18 7127.33,6897.03 7125.86,6897.87 7123.55,6898.58"/>
        <lane id=":2038566834_0_2" index="2" allow="private emergency authority army vip passenger hov taxi bus coach delivery truck trailer motorcycle evehicle custom1 custom2" speed="39.44" length="8.21" shape="7130.50,6892.34 7128.19,6893.04 7126.72,6893.88 7125.25,6894.73 7122.94,6895.44"/>
    </edge>
    <edge id=":2038566884_0" function="internal">
        <lane id=":2038566884_0_0" index="0" allow="private emergency authority army vip passenger hov taxi bus coach delivery truck trailer motorcycle evehicle custom1 custom2" speed="39.44" length="7.97" shape="5145.52,7096.48 5137.67,7096.98"/>
        <lane id=":2038566884_0_1" index="1" allow="private emergency authority army vip passenger hov taxi bus coach delivery truck trailer motorcycle evehicle custom1 custom2" speed="39.44" length="7.97" shape="5145.37,7093.29 5137.42,7093.79"/>
        <lane id=":2038566884_0_2" index="2" allow="private emergency authority army vip passenger hov taxi bus coach delivery truck trailer motorcycle evehicle custom1 custom2" speed="39.44" length="7.97" shape="5145.22,7090.09 5137.16,7090.60"/>
    </edge>
    <edge id=":2038566897_0" function="internal">
        <lane id=":2038566897_0_0" index="0" allow="private emergency authority army vip passenger hov taxi bus coach delivery truck trailer motorcycle evehicle custom1 custom2" speed="39.44" length="8.20" shape="2417.14,7105.99 2414.64,7105.78 2412.86,7106.42 2411.08,7107.05 2408.57,7106.85"/>
        <lane id=":2038566897_0_1" index="1" allow="private emergency authority army vip passenger hov taxi bus coach delivery truck trailer motorcycle evehicle custom1 custom2" speed="39.44" length="8.20" shape="2417.14,7105.99 2409.45,7103.78"/>
        <lane id=":2038566897_0_2" index="2" allow="private emergency authority army vip passenger hov taxi bus coach delivery truck trailer motorcycle evehicle custom1 custom2" speed="39.44" length="8.20" shape="2418.02,7102.91 2410.33,7100.70"/>
        <lane id=":2038566897_0_3" index="3" allow="private emergency authority army vip passenger hov taxi bus coach delivery truck trailer motorcycle evehicle custom1 custom2" speed="39.44" length="8.20" shape="2418.91,7099.84 2411.22,7097.62"/>
    </edge>
    <edge id=":205823681-AddedOffRampNode_0" function="internal">
        <lane id=":205823681-AddedOffRampNode_0_0" index="0" allow="private emergency authority army vip passenger hov taxi bus coach delivery truck trailer motorcycle evehicle custom1 custom2" speed="22.22" length="8.27" shape="11834.73,4178.17 11833.00,4179.99 11832.36,4181.77 11831.73,4183.56 11830.00,4185.38"/>
        <lane id=":205823681-AddedOffRampNode_0_1" index="1" allow="private emergency authority army vip passenger hov taxi bus coach delivery truck trailer motorcycle evehicle custom1 custom2" speed="22.22" length="8.27" shape="11834.73,4178.17 11828.17,4182.75"/>
        <lane id=":205823681-AddedOffRampNode_0_2" index="2" allow="private emergency authority army vip passenger hov taxi bus coach delivery truck trailer motorcycle evehicle custom1 custom2" speed="22.22" length="8.27" shape="11832.90,4175.55 11826.34,4180.13"/>
    </edge>
    <edge id=":21133202_0" function="internal">
        <lane id=":21133202_0_0" index="0" allow="private emergency authority army vip passenger hov taxi bus coach delivery truck trailer motorcycle evehicle custom1 custom2" speed="30.83" length="2.89" shape="11912.55,4079.07 11915.00,4077.53"/>
    </edge>
    <edge id=":21133202_1" function="internal">
        <lane id=":21133202_1_0" index="0" allow="private emergency authority army vip passenger hov taxi bus coach delivery truck trailer motorcycle evehicle custom1 custom2" speed="39.44" length="3.00" shape="11914.30,4081.81 11916.77,4080.20"/>
        <lane id=":21133202_1_1" index="1" allow="private emergency authority army vip passenger hov taxi bus coach delivery truck trailer motorcycle evehicle custom1 custom2" speed="39.44" length="3.00" shape="11916.03,4084.51 11918.53,4082.87"/>
        <lane id=":21133202_1_2" index="2" allow="private emergency authority army vip passenger hov taxi bus coach delivery truck trailer motorcycle evehicle custom1 custom2" speed="39.44" length="3.00" shape="11917.75,4087.21 11920.30,4085.54"/>
    </edge>
    <edge id=":21133203_0" function="internal">
        <lane id=":21133203_0_0" index="0" allow="private emergency authority army vip passenger hov taxi bus coach delivery truck trailer motorcycle evehicle custom1 custom2" speed="30.83" length="2.64" shape="11963.01,4081.20 11960.84,4082.71"/>
    </edge>
    <edge id=":21133203_1" function="internal">
        <lane id=":21133203_1_0" index="0" allow="private emergency authority army vip passenger hov taxi bus coach delivery truck trailer motorcycle evehicle custom1 custom2" speed="39.44" length="3.01" shape="11961.25,4078.52 11958.89,4080.07"/>
        <lane id=":21133203_1_1" index="1" allow="private emergency authority army vip passenger hov taxi bus coach delivery truck trailer motorcycle evehicle custom1 custom2" speed="39.44" length="3.01" shape="11959.50,4075.85 11956.98,4077.50"/>
        <lane id=":21133203_1_2" index="2" allow="private emergency authority army vip passenger hov taxi bus coach delivery truck trailer motorcycle evehicle custom1 custom2" speed="39.44" length="3.01" shape="11957.75,4073.17 11955.07,4074.92"/>
    </edge>
    <edge id=":21133210_0" function="internal">
        <lane id=":21133210_0_0" index="0" allow="private emergency authority army vip passenger hov taxi bus coach delivery truck trailer motorcycle evehicle custom1 custom2" speed="22.22" length="7.91" shape="11750.33,4232.06 11748.53,4233.54 11747.52,4234.84 11746.49,4236.09 11744.62,4237.46"/>
    </edge>
    <edge id=":21133222_0" function="internal">
        <lane id=":21133222_0_0" index="0" allow="private emergency authority army vip passenger hov taxi bus coach delivery truck trailer motorcycle evehicle custom1 custom2" speed="22.22" length="7.91" shape="11415.56,4449.26 11413.74,4450.71 11412.70,4451.99 11411.64,4453.22 11409.74,4454.54"/>
    </edge>
    <edge id=":2400631906_0" function="internal">
        <lane id=":2400631906_0_0" index="0" allow="private emergency authority army vip passenger hov taxi bus coach delivery truck trailer motorcycle evehicle custom1 custom2" speed="39.44" length="8.20" shape="10973.14,4728.59 10971.02,4729.65 10969.39,4730.05 10967.78,4730.46 10965.69,4731.57"/>
        <lane id=":2400631906_0_1" index="1" allow="private emergency authority army vip passenger hov taxi bus coach delivery truck trailer motorcycle evehicle custom1 custom2" speed="39.44" length="8.20" shape="10971.42,4725.89 10969.28,4726.97 10967.64,4727.37 10966.01,4727.80 10963.90,4728.92"/>
        <lane id=":2400631906_0_2" index="2" allow="private emergency authority army vip passenger hov taxi bus coach delivery truck trailer motorcycle evehicle custom1 custom2" speed="39.44" length="8.20" shape="10969.70,4723.20 10967.53,4724.28 10965.88,4724.70 10964.24,4725.13 10962.11,4726.27"/>
        <lane id=":2400631906_0_3" index="3" allow="private emergency authority army vip passenger hov taxi bus coach delivery truck trailer motorcycle evehicle custom1 custom2" speed="39.44" length="8.20" shape="10967.97,4720.50 10965.79,4721.60 10964.13,4722.02 10962.47,4722.46 10960.32,4723.61"/>
    </edge>
    <edge id=":242387_0" function="internal">
        <lane id=":242387_0_0" index="0" allow="private emergency authority army vip passenger hov taxi bus coach delivery truck trailer motorcycle evehicle custom1 custom2" speed="39.44" length="3.02" shape="11047.66,4684.84 11045.09,4686.44"/>
        <lane id=":242387_0_1" index="1" allow="private emergency authority army vip passenger hov taxi bus coach delivery truck trailer motorcycle evehicle custom1 custom2" speed="39.44" length="3.02" shape="11045.92,4682.15 11043.36,4683.74"/>
    </edge>
    <edge id=":242387_2" function="internal">
        <lane id=":242387_2_0" index="0" allow="private emergency authority army vip passenger hov taxi bus coach delivery truck trailer motorcycle evehicle custom1 custom2" speed="39.44" length="2.99" shape="11044.17,4679.43 11041.64,4681.05"/>
        <lane id=":242387_2_1" index="1" allow="private emergency authority army vip passenger hov taxi bus coach delivery truck trailer motorcycle evehicle custom1 custom2" speed="39.44" length="2.99" shape="11042.43,4676.74 11039.92,4678.35"/>
        <lane id=":242387_2_2" index="2" allow="private emergency authority army vip passenger hov taxi bus coach delivery truck trailer motorcycle evehicle custom1 custom2" speed="39.44" length="2.99" shape="11040.70,4674.05 11038.20,4675.65"/>
    </edge>
    <edge id=":242402_0" function="internal">
        <lane id=":242402_0_0" index="0" allow="private emergency authority army vip passenger hov taxi bus coach delivery truck trailer motorcycle evehicle custom1 custom2" speed="39.44" length="8.20" shape="5855.37,7060.15 5852.99,7060.52 5851.41,7061.15 5849.83,7061.77 5847.44,7062.12"/>
        <lane id=":242402_0_1" index="1" allow="private emergency authority army vip passenger hov taxi bus coach delivery truck trailer motorcycle evehicle custom1 custom2" speed="39.44" length="8.20" shape="5855.21,7056.96 5852.83,7057.33 5851.26,7057.96 5849.69,7058.58 5847.31,7058.93"/>
        <lane id=":242402_0_2" index="2" allow="private emergency authority army vip passenger hov taxi bus coach delivery truck trailer motorcycle evehicle custom1 custom2" speed="39.44" length="8.20" shape="5855.04,7053.76 5852.68,7054.13 5851.11,7054.76 5849.54,7055.38 5847.17,7055.73"/>
    </edge>
    <edge id=":242403_0" function="internal">
        <lane id=":242403_0_0" index="0" allow="private emergency authority army vip passenger hov taxi bus coach delivery truck trailer motorcycle evehicle custom1 custom2" speed="39.44" length="8.00" shape="6357.54,6998.76 6365.45,6997.89"/>
        <lane id=":242403_0_1" index="1" allow="private emergency authority army vip passenger hov taxi bus coach delivery truck trailer motorcycle evehicle custom1 custom2" speed="39.44" length="8.00" shape="6357.87,7001.94 6365.83,7001.07"/>
        <lane id=":242403_0_2" index="2" allow="private emergency authority army vip passenger hov taxi bus coach delivery truck trailer motorcycle evehicle custom1 custom2" speed="39.44" length="8.00" shape="6358.20,7005.13 6366.20,7004.25"/>
    </edge>
    <edge id=":245219072_0" function="internal">
        <lane id=":245219072_0_0" index="0" allow="private emergency authority army vip passenger hov taxi bus coach delivery truck trailer motorcycle evehicle custom1 custom2" speed="39.44" length="8.10" shape="8273.80,6499.26 8272.01,6501.06 8271.29,6502.84 8270.56,6504.58 8268.70,6506.28"/>
        <lane id=":245219072_0_1" index="1" allow="private emergency authority army vip passenger hov taxi bus coach delivery truck trailer motorcycle evehicle custom1 custom2" speed="39.44" length="8.10" shape="8273.80,6499.26 8267.05,6503.54"/>
        <lane id=":245219072_0_2" index="2" allow="private emergency authority army vip passenger hov taxi bus coach delivery truck trailer motorcycle evehicle custom1 custom2" speed="39.44" length="8.10" shape="8272.02,6496.60 8265.40,6500.80"/>
        <lane id=":245219072_0_3" index="3" allow="private emergency authority army vip passenger hov taxi bus coach delivery truck trailer motorcycle evehicle custom1 custom2" speed="39.44" length="8.10" shape="8270.24,6493.94 8263.75,6498.06"/>
    </edge>
    <edge id=":2480392713_0" function="internal">