<?xml version="1.0" encoding="UTF-8"?>

<!-- generated on 2022-11-16 20:35:56 by Eclipse SUMO netconvert Version 1.14.1
<configuration xmlns:xsi="http://www.w3.org/2001/XMLSchema-instance" xsi:noNamespaceSchemaLocation="http://sumo.dlr.de/xsd/netconvertConfiguration.xsd">

    <input>
        <type-files value="/home/marcos/Proj/sumo/data/typemap/osmNetconvert.typ.xml"/>
        <osm-files value="osm_bbox.osm.xml.gz"/>
    </input>

    <output>
        <output-file value="osm.net.xml"/>
        <output.street-names value="true"/>
        <output.original-names value="true"/>
    </output>

    <projection>
        <proj.utm value="true"/>
    </projection>

    <processing>
        <geometry.remove value="true"/>
        <roundabouts.guess value="true"/>
    </processing>

    <tls_building>
        <tls.discard-simple value="true"/>
        <tls.join value="true"/>
        <tls.guess-signals value="true"/>
        <tls.default-type value="actuated"/>
    </tls_building>

    <ramp_guessing>
        <ramps.guess value="true"/>
    </ramp_guessing>

    <junctions>
        <junctions.join value="true"/>
        <junctions.corner-detail value="5"/>
    </junctions>

    <report>
        <verbose value="true"/>
    </report>

</configuration>
-->

<net version="1.9" junctionCornerDetail="5" limitTurnSpeed="5.50" xmlns:xsi="http://www.w3.org/2001/XMLSchema-instance" xsi:noNamespaceSchemaLocation="http://sumo.dlr.de/xsd/net_file.xsd">

    <location netOffset="-507024.52,-5398501.10" convBoundary="0.00,0.00,1807.98,1291.26" origBoundary="9.095546,48.739472,9.120149,48.751099" projParameter="+proj=utm +zone=32 +ellps=WGS84 +datum=WGS84 +units=m +no_defs"/>

    <type id="highway.bridleway" priority="1" numLanes="1" speed="2.78" allow="pedestrian" oneway="1" width="2.00"/>
    <type id="highway.bus_guideway" priority="1" numLanes="1" speed="27.78" allow="bus" oneway="1"/>
    <type id="highway.cycleway" priority="1" numLanes="1" speed="5.56" allow="bicycle" oneway="0" width="1.00"/>
    <type id="highway.footway" priority="1" numLanes="1" speed="2.78" allow="pedestrian" oneway="1" width="2.00"/>
    <type id="highway.ford" priority="1" numLanes="1" speed="2.78" allow="army" oneway="0"/>
    <type id="highway.living_street" priority="2" numLanes="1" speed="2.78" disallow="tram rail_urban rail rail_electric rail_fast ship" oneway="0"/>
    <type id="highway.motorway" priority="14" numLanes="2" speed="39.44" allow="private emergency authority army vip passenger hov taxi bus coach delivery truck trailer motorcycle evehicle custom1 custom2" oneway="1"/>
    <type id="highway.motorway_link" priority="9" numLanes="1" speed="22.22" allow="private emergency authority army vip passenger hov taxi bus coach delivery truck trailer motorcycle evehicle custom1 custom2" oneway="1"/>
    <type id="highway.path" priority="1" numLanes="1" speed="5.56" allow="pedestrian bicycle" oneway="0" width="2.00"/>
    <type id="highway.pedestrian" priority="1" numLanes="1" speed="2.78" allow="pedestrian" oneway="1" width="2.00"/>
    <type id="highway.primary" priority="12" numLanes="2" speed="27.78" disallow="tram rail_urban rail rail_electric rail_fast ship" oneway="0"/>
    <type id="highway.primary_link" priority="7" numLanes="1" speed="22.22" disallow="tram rail_urban rail rail_electric rail_fast ship" oneway="0"/>
    <type id="highway.raceway" priority="15" numLanes="2" speed="83.33" allow="vip" oneway="0"/>
    <type id="highway.residential" priority="3" numLanes="1" speed="13.89" disallow="tram rail_urban rail rail_electric rail_fast ship" oneway="0"/>
    <type id="highway.secondary" priority="11" numLanes="1" speed="27.78" disallow="tram rail_urban rail rail_electric rail_fast ship" oneway="0"/>
    <type id="highway.secondary_link" priority="6" numLanes="1" speed="22.22" disallow="tram rail_urban rail rail_electric rail_fast ship" oneway="0"/>
    <type id="highway.service" priority="1" numLanes="1" speed="5.56" allow="pedestrian delivery bicycle" oneway="0"/>
    <type id="highway.stairs" priority="1" numLanes="1" speed="1.39" allow="pedestrian" oneway="1" width="2.00"/>
    <type id="highway.step" priority="1" numLanes="1" speed="1.39" allow="pedestrian" oneway="1" width="2.00"/>
    <type id="highway.steps" priority="1" numLanes="1" speed="1.39" allow="pedestrian" oneway="1" width="2.00"/>
    <type id="highway.tertiary" priority="10" numLanes="1" speed="22.22" disallow="tram rail_urban rail rail_electric rail_fast ship" oneway="0"/>
    <type id="highway.tertiary_link" priority="5" numLanes="1" speed="22.22" disallow="tram rail_urban rail rail_electric rail_fast ship" oneway="0"/>
    <type id="highway.track" priority="1" numLanes="1" speed="5.56" allow="pedestrian motorcycle moped bicycle" oneway="0"/>
    <type id="highway.trunk" priority="13" numLanes="2" speed="27.78" disallow="pedestrian bicycle tram rail_urban rail rail_electric rail_fast ship" oneway="0"/>
    <type id="highway.trunk_link" priority="8" numLanes="1" speed="22.22" disallow="pedestrian bicycle tram rail_urban rail rail_electric rail_fast ship" oneway="0"/>
    <type id="highway.unclassified" priority="4" numLanes="1" speed="13.89" disallow="tram rail_urban rail rail_electric rail_fast ship" oneway="0"/>
    <type id="highway.unsurfaced" priority="1" numLanes="1" speed="8.33" disallow="tram rail_urban rail rail_electric rail_fast ship" oneway="0"/>
    <type id="railway.highspeed" priority="21" numLanes="1" speed="69.44" allow="rail_fast" oneway="1"/>
    <type id="railway.light_rail" priority="19" numLanes="1" speed="27.78" allow="rail_urban" oneway="1"/>
    <type id="railway.preserved" priority="16" numLanes="1" speed="27.78" allow="rail" oneway="1"/>
    <type id="railway.rail" priority="20" numLanes="1" speed="44.44" allow="rail" oneway="1"/>
    <type id="railway.subway" priority="18" numLanes="1" speed="27.78" allow="rail_urban" oneway="1"/>
    <type id="railway.tram" priority="17" numLanes="1" speed="13.89" allow="tram" oneway="1"/>

    <edge id=":10077580956_0" function="internal">
        <lane id=":10077580956_0_0" index="0" disallow="tram rail_urban rail rail_electric rail_fast ship" speed="2.78" length="4.67" shape="1178.81,693.99 1179.45,692.70 1180.19,692.19 1181.03,692.49 1181.98,693.57"/>
    </edge>
    <edge id=":10077613435_0" function="internal">
        <lane id=":10077613435_0_0" index="0" allow="pedestrian delivery bicycle" speed="3.65" length="4.67" shape="1200.59,691.74 1201.19,690.43 1201.92,689.91 1202.77,690.18 1203.75,691.23"/>
    </edge>
    <edge id=":1103429724_0" function="internal">
        <lane id=":1103429724_0_0" index="0" disallow="pedestrian bicycle tram rail_urban rail rail_electric rail_fast ship" speed="22.22" length="21.36" shape="1091.19,446.53 1088.62,440.74 1087.73,436.28 1086.83,431.95 1084.23,426.55"/>
        <lane id=":1103429724_0_1" index="1" disallow="pedestrian bicycle tram rail_urban rail rail_electric rail_fast ship" speed="22.22" length="21.36" shape="1093.96,444.93 1091.37,439.09 1090.45,434.60 1089.54,430.25 1086.93,424.84"/>
    </edge>
    <edge id=":1103429724_2" function="internal">
        <lane id=":1103429724_2_0" index="0" disallow="pedestrian bicycle tram rail_urban rail rail_electric rail_fast ship" speed="19.44" length="20.61" shape="1099.50,441.72 1096.17,435.73 1093.76,430.87 1092.06,426.77 1090.84,423.08"/>
    </edge>
    <edge id=":1103436193_0" function="internal">
        <lane id=":1103436193_0_0" index="0" allow="pedestrian delivery bicycle" speed="4.02" length="1.70" shape="604.87,458.63 604.58,458.29 604.25,458.06 603.86,457.93 603.42,457.91"/>
    </edge>
    <edge id=":1103436193_1" function="internal">
        <lane id=":1103436193_1_0" index="0" allow="pedestrian delivery bicycle" speed="5.56" length="5.09" shape="603.19,454.72 604.51,454.78 605.68,455.16 606.68,455.85 607.54,456.86"/>
    </edge>
    <edge id=":1229755831_0" function="internal">
        <lane id=":1229755831_0_0" index="0" allow="delivery bicycle" speed="4.86" length="5.24" shape="957.98,617.88 956.61,617.35 955.47,617.44 954.57,618.15 953.90,619.47"/>
    </edge>
    <edge id=":1229755831_1" function="internal">
        <lane id=":1229755831_1_0" index="0" disallow="pedestrian tram rail_urban rail rail_electric rail_fast ship" speed="13.89" length="9.62" shape="957.98,617.88 955.49,616.49 953.76,615.57 952.00,614.73 949.39,613.57"/>
    </edge>
    <edge id=":1229755831_2" function="internal">
        <lane id=":1229755831_2_0" index="0" disallow="pedestrian tram rail_urban rail rail_electric rail_fast ship" speed="13.89" length="9.93" shape="950.67,610.63 953.37,611.83 955.19,612.70 956.97,613.65 959.54,615.08"/>
    </edge>
    <edge id=":1229755831_3" function="internal">
        <lane id=":1229755831_3_0" index="0" allow="delivery bicycle" speed="7.20" length="3.06" shape="950.67,610.63 952.89,612.07 953.12,612.42"/>
    </edge>
    <edge id=":1229755831_7" function="internal">
        <lane id=":1229755831_7_0" index="0" allow="delivery bicycle" speed="7.20" length="7.44" shape="953.12,612.42 954.17,614.02 954.51,616.49 953.90,619.47"/>
    </edge>
    <edge id=":1229755831_4" function="internal">
        <lane id=":1229755831_4_0" index="0" allow="delivery bicycle" speed="5.49" length="5.69" shape="950.87,618.46 951.24,616.76 951.11,615.38 950.50,614.32 949.39,613.57"/>
    </edge>
    <edge id=":1229755831_5" function="internal">
        <lane id=":1229755831_5_0" index="0" allow="delivery bicycle" speed="6.73" length="11.13" shape="950.87,618.46 952.27,615.65 954.19,614.15 956.61,613.96 959.54,615.08"/>
    </edge>
    <edge id=":1229755831_6" function="internal">
        <lane id=":1229755831_6_0" index="0" allow="pedestrian delivery bicycle" speed="3.65" length="4.67" shape="950.87,618.46 952.01,617.57 952.89,617.44 953.52,618.07 953.90,619.47"/>
    </edge>
    <edge id=":1229756024_0" function="internal">
        <lane id=":1229756024_0_0" index="0" allow="pedestrian delivery bicycle" speed="5.56" length="9.40" shape="385.09,466.17 384.45,456.79"/>
    </edge>
    <edge id=":1229756024_1" function="internal">
        <lane id=":1229756024_1_0" index="0" allow="pedestrian delivery bicycle" speed="5.56" length="10.16" shape="385.09,466.17 385.30,463.39 386.34,461.35 388.23,460.04 390.95,459.46"/>
    </edge>
    <edge id=":1229756024_2" function="internal">
        <lane id=":1229756024_2_0" index="0" allow="pedestrian delivery bicycle" speed="3.65" length="4.67" shape="385.09,466.17 385.81,464.92 386.58,464.47 387.40,464.81 388.28,465.95"/>
    </edge>
    <edge id=":1229756024_3" function="internal">
        <lane id=":1229756024_3_0" index="0" allow="pedestrian delivery bicycle" speed="5.04" length="5.00" shape="391.17,462.65 389.83,462.94 388.90,463.58 388.39,464.59 388.28,465.95"/>
    </edge>
    <edge id=":1229756024_4" function="internal">
        <lane id=":1229756024_4_0" index="0" allow="pedestrian delivery bicycle" speed="5.56" length="10.16" shape="391.17,462.65 388.39,462.44 386.34,461.40 385.03,459.51 384.45,456.79"/>
    </edge>
    <edge id=":1229756024_5" function="internal">
        <lane id=":1229756024_5_0" index="0" allow="pedestrian delivery bicycle" speed="3.65" length="4.67" shape="391.17,462.65 389.92,461.93 389.46,461.16 389.81,460.34 390.95,459.46"/>
    </edge>
    <edge id=":1229756024_6" function="internal">
        <lane id=":1229756024_6_0" index="0" allow="pedestrian delivery bicycle" speed="5.04" length="5.00" shape="387.65,456.57 387.93,457.91 388.58,458.84 389.58,459.36 390.95,459.46"/>
    </edge>
    <edge id=":1229756024_7" function="internal">
        <lane id=":1229756024_7_0" index="0" allow="pedestrian delivery bicycle" speed="5.56" length="9.40" shape="387.65,456.57 388.28,465.95"/>
    </edge>
    <edge id=":1229756024_8" function="internal">
        <lane id=":1229756024_8_0" index="0" allow="pedestrian delivery bicycle" speed="3.65" length="4.67" shape="387.65,456.57 386.93,457.83 386.16,458.28 385.33,457.93 384.45,456.79"/>
    </edge>
    <edge id=":1229756045_0" function="internal">
        <lane id=":1229756045_0_0" index="0" disallow="pedestrian tram rail_urban rail rail_electric rail_fast ship" speed="7.33" length="9.90" shape="1103.15,834.62 1100.72,834.46 1098.61,835.17 1096.82,836.74 1095.34,839.18"/>
    </edge>
    <edge id=":1229756045_1" function="internal">
        <lane id=":1229756045_1_0" index="0" disallow="pedestrian tram rail_urban rail rail_electric rail_fast ship" speed="13.89" length="17.42" shape="1103.15,834.62 1099.16,833.57 1094.79,832.20 1090.45,830.71 1086.58,829.28"/>
    </edge>
    <edge id=":1229756045_2" function="internal">
        <lane id=":1229756045_2_0" index="0" disallow="pedestrian tram rail_urban rail rail_electric rail_fast ship" speed="3.65" length="1.44" shape="1103.15,834.62 1102.16,833.58"/>
    </edge>
    <edge id=":1229756045_9" function="internal">
        <lane id=":1229756045_9_0" index="0" disallow="pedestrian tram rail_urban rail rail_electric rail_fast ship" speed="3.65" length="3.23" shape="1102.16,833.58 1101.95,832.71 1102.52,832.02 1103.87,831.51"/>
    </edge>
    <edge id=":1229756045_3" function="internal">
        <lane id=":1229756045_3_0" index="0" disallow="pedestrian tram rail_urban rail rail_electric rail_fast ship" speed="13.89" length="17.15" shape="1088.87,823.30 1093.90,825.72 1097.53,828.13 1100.59,830.18 1103.87,831.51"/>
    </edge>
    <edge id=":1229756045_4" function="internal">
        <lane id=":1229756045_4_0" index="0" disallow="pedestrian tram rail_urban rail rail_electric rail_fast ship" speed="8.56" length="5.39" shape="1087.73,826.29 1092.52,828.75"/>
    </edge>
    <edge id=":1229756045_5" function="internal">
        <lane id=":1229756045_5_0" index="0" disallow="pedestrian tram rail_urban rail rail_electric rail_fast ship" speed="3.65" length="1.44" shape="1087.73,826.29 1088.56,827.47"/>
    </edge>
    <edge id=":1229756045_10" function="internal">
        <lane id=":1229756045_10_0" index="0" disallow="pedestrian tram rail_urban rail rail_electric rail_fast ship" speed="8.56" length="11.84" shape="1092.52,828.75 1095.39,831.72 1096.33,835.20 1095.34,839.18"/>
    </edge>
    <edge id=":1229756045_11" function="internal">
        <lane id=":1229756045_11_0" index="0" disallow="pedestrian tram rail_urban rail rail_electric rail_fast ship" speed="3.65" length="3.23" shape="1088.56,827.47 1088.65,828.36 1087.99,828.96 1086.58,829.28"/>
    </edge>
    <edge id=":1229756045_6" function="internal">
        <lane id=":1229756045_6_0" index="0" disallow="pedestrian tram rail_urban rail rail_electric rail_fast ship" speed="6.37" length="9.04" shape="1089.52,836.51 1090.23,834.11 1089.98,832.11 1088.76,830.50 1086.58,829.28"/>
    </edge>
    <edge id=":1229756045_7" function="internal">
        <lane id=":1229756045_7_0" index="0" disallow="pedestrian tram rail_urban rail rail_electric rail_fast ship" speed="9.33" length="16.57" shape="1089.52,836.51 1091.72,833.38 1094.84,831.51 1098.89,830.88 1103.87,831.51"/>
    </edge>
    <edge id=":1229756045_8" function="internal">
        <lane id=":1229756045_8_0" index="0" disallow="pedestrian tram rail_urban rail rail_electric rail_fast ship" speed="3.65" length="4.67" shape="1092.43,837.85 1093.66,837.09 1094.55,837.06 1095.11,837.76 1095.34,839.18"/>
    </edge>
    <edge id=":1229756105_0" function="internal">
        <lane id=":1229756105_0_0" index="0" disallow="pedestrian tram rail_urban rail rail_electric rail_fast ship" speed="13.89" length="8.02" shape="849.26,569.98 841.91,566.75"/>
    </edge>
    <edge id=":1229756105_1" function="internal">
        <lane id=":1229756105_1_0" index="0" disallow="pedestrian tram rail_urban rail rail_electric rail_fast ship" speed="13.89" length="8.38" shape="843.22,563.83 845.66,564.37 847.50,563.98 849.35,563.59 851.80,564.10"/>
        <lane id=":1229756105_1_1" index="1" disallow="pedestrian tram rail_urban rail rail_electric rail_fast ship" speed="13.89" length="8.38" shape="843.22,563.83 850.53,567.04"/>
    </edge>
    <edge id=":1229756193_0" function="internal">
        <lane id=":1229756193_0_0" index="0" allow="delivery bicycle" speed="5.10" length="4.95" shape="692.16,483.69 690.96,483.10 689.83,483.02 688.79,483.45 687.83,484.40"/>
    </edge>
    <edge id=":1229756193_1" function="internal">
        <lane id=":1229756193_1_0" index="0" disallow="pedestrian tram rail_urban rail rail_electric rail_fast ship" speed="13.89" length="9.26" shape="692.16,483.69 684.75,478.14"/>
    </edge>
    <edge id=":1229756193_2" function="internal">
        <lane id=":1229756193_2_0" index="0" disallow="pedestrian tram rail_urban rail rail_electric rail_fast ship" speed="13.89" length="8.99" shape="686.77,475.66 693.97,481.05"/>
    </edge>
    <edge id=":1229756193_3" function="internal">
        <lane id=":1229756193_3_0" index="0" allow="delivery bicycle" speed="6.88" length="3.01" shape="686.77,475.66 688.62,477.67 688.72,477.93"/>
    </edge>
    <edge id=":1229756193_7" function="internal">
        <lane id=":1229756193_7_0" index="0" allow="delivery bicycle" speed="6.88" length="6.95" shape="688.72,477.93 689.42,479.79 689.15,482.03 687.83,484.40"/>
    </edge>
    <edge id=":1229756193_4" function="internal">
        <lane id=":1229756193_4_0" index="0" allow="delivery bicycle" speed="4.54" length="5.62" shape="685.13,482.21 686.37,481.58 686.72,480.69 686.18,479.55 684.75,478.14"/>
    </edge>
    <edge id=":1229756193_5" function="internal">
        <lane id=":1229756193_5_0" index="0" allow="delivery bicycle" speed="9.17" length="9.05" shape="685.13,482.21 688.44,481.32 691.02,480.84 692.86,480.75 693.97,481.05"/>
    </edge>
    <edge id=":1229756193_6" function="internal">
        <lane id=":1229756193_6_0" index="0" allow="pedestrian delivery bicycle" speed="4.10" length="5.08" shape="685.13,482.21 686.62,481.74 687.57,481.95 687.98,482.84 687.83,484.40"/>
    </edge>
    <edge id=":1229756302_0" function="internal">
        <lane id=":1229756302_0_0" index="0" allow="pedestrian delivery bicycle" speed="3.65" length="4.67" shape="801.41,1016.51 800.66,1017.74 799.87,1018.17 799.06,1017.80 798.21,1016.63"/>
    </edge>
    <edge id=":1229756407_0" function="internal">
        <lane id=":1229756407_0_0" index="0" disallow="pedestrian tram rail_urban rail rail_electric rail_fast ship" speed="13.89" length="7.67" shape="1055.32,803.70 1053.79,802.01 1052.78,800.82 1051.83,799.59 1050.49,797.75"/>
    </edge>
    <edge id=":1229756407_1" function="internal">
        <lane id=":1229756407_1_0" index="0" disallow="pedestrian tram rail_urban rail rail_electric rail_fast ship" speed="13.89" length="7.68" shape="1053.08,795.87 1054.77,797.35 1056.44,797.73 1058.18,798.07 1060.06,799.40"/>
        <lane id=":1229756407_1_1" index="1" disallow="pedestrian tram rail_urban rail rail_electric rail_fast ship" speed="13.89" length="7.68" shape="1053.08,795.87 1054.36,797.62 1055.27,798.80 1056.23,799.93 1057.69,801.55"/>
    </edge>
    <edge id=":1229756448_0" function="internal">
        <lane id=":1229756448_0_0" index="0" disallow="pedestrian tram rail_urban rail rail_electric rail_fast ship" speed="13.89" length="14.55" shape="1028.51,739.06 1025.59,724.80"/>
    </edge>
    <edge id=":1229756448_1" function="internal">
        <lane id=":1229756448_1_0" index="0" disallow="pedestrian tram rail_urban rail rail_electric rail_fast ship" speed="8.12" length="4.12" shape="1028.51,739.06 1028.23,735.22 1028.32,734.96"/>
    </edge>
    <edge id=":1229756448_2" function="internal">
        <lane id=":1229756448_2_0" index="0" disallow="pedestrian tram rail_urban rail rail_electric rail_fast ship" speed="3.65" length="1.44" shape="1028.51,739.06 1029.03,737.72"/>
    </edge>
    <edge id=":1229756448_9" function="internal">
        <lane id=":1229756448_9_0" index="0" disallow="pedestrian tram rail_urban rail rail_electric rail_fast ship" speed="8.12" length="10.20" shape="1028.32,734.96 1029.27,732.17 1031.64,729.90 1035.32,728.41"/>
    </edge>
    <edge id=":1229756448_10" function="internal">
        <lane id=":1229756448_10_0" index="0" disallow="pedestrian tram rail_urban rail rail_electric rail_fast ship" speed="3.65" length="3.23" shape="1029.03,737.72 1029.72,737.15 1030.59,737.37 1031.63,738.37"/>
    </edge>
    <edge id=":1229756448_3" function="internal">
        <lane id=":1229756448_3_0" index="0" disallow="pedestrian tram rail_urban rail rail_electric rail_fast ship" speed="6.65" length="9.27" shape="1036.10,731.52 1033.70,732.48 1032.15,733.95 1031.46,735.91 1031.63,738.37"/>
    </edge>
    <edge id=":1229756448_4" function="internal">
        <lane id=":1229756448_4_0" index="0" disallow="pedestrian tram rail_urban rail rail_electric rail_fast ship" speed="7.89" length="14.43" shape="1036.10,731.52 1032.14,731.93 1029.06,730.95 1026.88,728.57 1025.59,724.80"/>
    </edge>
    <edge id=":1229756448_5" function="internal">
        <lane id=":1229756448_5_0" index="0" disallow="tram rail_urban rail rail_electric rail_fast ship" speed="3.65" length="4.67" shape="1036.10,731.52 1034.74,731.03 1034.16,730.36 1034.35,729.48 1035.32,728.41"/>
    </edge>
    <edge id=":1229756448_6" function="internal">
        <lane id=":1229756448_6_0" index="0" disallow="pedestrian tram rail_urban rail rail_electric rail_fast ship" speed="6.38" length="9.04" shape="1028.73,724.21 1029.54,726.57 1030.91,728.06 1032.83,728.67 1035.32,728.41"/>
    </edge>
    <edge id=":1229756448_7" function="internal">
        <lane id=":1229756448_7_0" index="0" disallow="pedestrian tram rail_urban rail rail_electric rail_fast ship" speed="13.89" length="14.46" shape="1028.73,724.21 1031.63,738.37"/>
    </edge>
    <edge id=":1229756448_8" function="internal">
        <lane id=":1229756448_8_0" index="0" disallow="pedestrian tram rail_urban rail rail_electric rail_fast ship" speed="3.65" length="1.44" shape="1028.73,724.21 1028.17,725.54"/>
    </edge>
    <edge id=":1229756448_11" function="internal">
        <lane id=":1229756448_11_0" index="0" disallow="pedestrian tram rail_urban rail rail_electric rail_fast ship" speed="3.65" length="3.23" shape="1028.17,725.54 1027.46,726.08 1026.60,725.83 1025.59,724.80"/>
    </edge>
    <edge id=":1229756480_0" function="internal">
        <lane id=":1229756480_0_0" index="0" disallow="pedestrian tram rail_urban rail rail_electric rail_fast ship" speed="6.52" length="8.70" shape="624.13,413.06 622.62,411.25 620.87,410.31 618.89,410.26 616.67,411.10"/>
    </edge>
    <edge id=":1229756480_1" function="internal">
        <lane id=":1229756480_1_0" index="0" disallow="pedestrian tram rail_urban rail rail_electric rail_fast ship" speed="13.89" length="13.78" shape="624.13,413.06 622.30,410.01 620.69,407.10 619.18,404.13 617.69,400.90"/>
    </edge>
    <edge id=":1229756480_2" function="internal">
        <lane id=":1229756480_2_0" index="0" disallow="pedestrian tram rail_urban rail rail_electric rail_fast ship" speed="3.65" length="1.44" shape="624.13,413.06 624.18,411.62"/>
    </edge>
    <edge id=":1229756480_9" function="internal">
        <lane id=":1229756480_9_0" index="0" disallow="pedestrian tram rail_urban rail rail_electric rail_fast ship" speed="3.65" length="3.23" shape="624.18,411.62 624.65,410.86 625.54,410.78 626.85,411.38"/>
    </edge>
    <edge id=":1229756480_3" function="internal">
        <lane id=":1229756480_3_0" index="0" disallow="pedestrian tram rail_urban rail rail_electric rail_fast ship" speed="13.89" length="13.59" shape="623.53,398.29 624.84,402.34 625.24,405.55 625.61,408.41 626.85,411.38"/>
    </edge>
    <edge id=":1229756480_4" function="internal">
        <lane id=":1229756480_4_0" index="0" disallow="pedestrian tram rail_urban rail rail_electric rail_fast ship" speed="8.09" length="3.82" shape="620.61,399.60 621.62,403.13 621.60,403.28"/>
    </edge>
    <edge id=":1229756480_5" function="internal">
        <lane id=":1229756480_5_0" index="0" disallow="pedestrian tram rail_urban rail rail_electric rail_fast ship" speed="3.65" length="1.44" shape="620.61,399.60 620.37,401.02"/>
    </edge>
    <edge id=":1229756480_10" function="internal">
        <lane id=":1229756480_10_0" index="0" disallow="pedestrian tram rail_urban rail rail_electric rail_fast ship" speed="8.09" length="9.80" shape="621.60,403.28 621.30,406.22 619.65,408.88 616.67,411.10"/>
    </edge>
    <edge id=":1229756480_11" function="internal">
        <lane id=":1229756480_11_0" index="0" disallow="pedestrian tram rail_urban rail rail_electric rail_fast ship" speed="3.65" length="3.23" shape="620.37,401.02 619.80,401.71 618.91,401.67 617.69,400.90"/>
    </edge>
    <edge id=":1229756480_6" function="internal">
        <lane id=":1229756480_6_0" index="0" disallow="pedestrian tram rail_urban rail rail_electric rail_fast ship" speed="6.61" length="8.77" shape="615.13,408.29 617.06,406.86 618.12,405.16 618.33,403.17 617.69,400.90"/>
    </edge>
    <edge id=":1229756480_7" function="internal">
        <lane id=":1229756480_7_0" index="0" disallow="pedestrian tram rail_urban rail rail_electric rail_fast ship" speed="8.01" length="13.67" shape="615.13,408.29 618.61,406.98 621.73,407.06 624.47,408.52 626.85,411.38"/>
    </edge>
    <edge id=":1229756480_8" function="internal">
        <lane id=":1229756480_8_0" index="0" disallow="pedestrian tram rail_urban rail rail_electric rail_fast ship" speed="3.65" length="4.67" shape="615.13,408.29 616.57,408.42 617.31,408.93 617.34,409.82 616.67,411.10"/>
    </edge>
    <edge id=":1229756492_0" function="internal">
        <lane id=":1229756492_0_0" index="0" allow="pedestrian delivery bicycle" speed="5.09" length="5.06" shape="715.48,842.94 715.19,841.61 714.53,840.68 713.50,840.16 712.10,840.04"/>
    </edge>
    <edge id=":1229756492_1" function="internal">
        <lane id=":1229756492_1_0" index="0" allow="pedestrian delivery bicycle" speed="5.56" length="9.40" shape="715.48,842.94 714.84,833.57"/>
    </edge>
    <edge id=":1229756492_2" function="internal">
        <lane id=":1229756492_2_0" index="0" allow="pedestrian delivery bicycle" speed="3.65" length="4.67" shape="715.48,842.94 716.20,841.69 716.97,841.24 717.79,841.59 718.67,842.73"/>
    </edge>
    <edge id=":1229756492_3" function="internal">
        <lane id=":1229756492_3_0" index="0" allow="pedestrian delivery bicycle" speed="5.56" length="9.40" shape="718.04,833.35 718.67,842.73"/>
    </edge>
    <edge id=":1229756492_4" function="internal">
        <lane id=":1229756492_4_0" index="0" allow="pedestrian delivery bicycle" speed="5.56" length="10.24" shape="718.04,833.35 717.83,836.15 716.77,838.20 714.86,839.50 712.10,840.04"/>
    </edge>
    <edge id=":1229756492_5" function="internal">
        <lane id=":1229756492_5_0" index="0" allow="pedestrian delivery bicycle" speed="3.65" length="4.67" shape="718.04,833.35 717.32,834.60 716.55,835.05 715.72,834.71 714.84,833.57"/>
    </edge>
    <edge id=":1229756492_6" function="internal">
        <lane id=":1229756492_6_0" index="0" allow="pedestrian delivery bicycle" speed="5.02" length="5.02" shape="711.94,836.85 713.29,836.58 714.22,835.94 714.74,834.94 714.84,833.57"/>
    </edge>
    <edge id=":1229756492_7" function="internal">
        <lane id=":1229756492_7_0" index="0" allow="pedestrian delivery bicycle" speed="5.56" length="10.16" shape="711.94,836.85 714.73,837.09 716.78,838.15 718.09,840.03 718.67,842.73"/>
    </edge>
    <edge id=":1229756492_8" function="internal">
        <lane id=":1229756492_8_0" index="0" allow="pedestrian delivery bicycle" speed="3.65" length="4.67" shape="711.94,836.85 713.18,837.58 713.62,838.36 713.26,839.18 712.10,840.04"/>
    </edge>
    <edge id=":1229756509_0" function="internal">
        <lane id=":1229756509_0_0" index="0" allow="pedestrian delivery bicycle" speed="3.65" length="4.67" shape="515.60,896.17 516.83,896.92 517.26,897.71 516.89,898.52 515.73,899.37"/>
    </edge>
    <edge id=":1229756604_0" function="internal">
        <lane id=":1229756604_0_0" index="0" allow="pedestrian delivery bicycle" speed="3.65" length="4.67" shape="699.41,840.70 698.17,839.97 697.73,839.19 698.09,838.37 699.25,837.51"/>
    </edge>
    <edge id=":1229756655_0" function="internal">
        <lane id=":1229756655_0_0" index="0" allow="pedestrian delivery bicycle" speed="3.65" length="4.67" shape="382.53,428.43 383.25,427.18 384.02,426.72 384.84,427.07 385.72,428.21"/>
    </edge>
    <edge id=":1229756915_0" function="internal">
        <lane id=":1229756915_0_0" index="0" allow="pedestrian delivery bicycle" speed="3.65" length="4.67" shape="388.51,469.28 387.80,470.53 387.02,470.98 386.20,470.64 385.32,469.50"/>
    </edge>
    <edge id=":1229853306_0" function="internal">
        <lane id=":1229853306_0_0" index="0" allow="pedestrian delivery bicycle" speed="5.56" length="8.89" shape="564.65,1008.63 562.10,1007.92 560.34,1007.45 558.55,1007.22 555.93,1007.24"/>
    </edge>
    <edge id=":1229853306_1" function="internal">
        <lane id=":1229853306_1_0" index="0" allow="pedestrian delivery bicycle" speed="5.56" length="9.98" shape="564.65,1008.63 562.52,1007.69 560.93,1006.10 559.88,1003.86 559.37,1000.97"/>
    </edge>
    <edge id=":1229853306_2" function="internal">
        <lane id=":1229853306_2_0" index="0" allow="pedestrian delivery bicycle" speed="3.65" length="4.67" shape="564.65,1008.63 563.69,1007.55 563.50,1006.68 564.08,1006.00 565.44,1005.52"/>
    </edge>
    <edge id=":1229853306_3" function="internal">
        <lane id=":1229853306_3_0" index="0" allow="pedestrian delivery bicycle" speed="5.56" length="5.98" shape="562.56,1000.73 562.86,1002.58 563.44,1004.00 564.30,1004.98 565.44,1005.52"/>
    </edge>
    <edge id=":1229853306_4" function="internal">
        <lane id=":1229853306_4_0" index="0" allow="pedestrian delivery bicycle" speed="5.56" length="10.65" shape="562.56,1000.73 562.32,1003.45 561.14,1005.45 559.01,1006.71 555.93,1007.24"/>
    </edge>