<?xml version="1.0" encoding="UTF-8"?>

<!-- generated on 2022-11-16 20:35:56 by Eclipse SUMO polyconvert Version 1.14.1
<configuration xmlns:xsi="http://www.w3.org/2001/XMLSchema-instance" xsi:noNamespaceSchemaLocation="http://sumo.dlr.de/xsd/polyconvertConfiguration.xsd">

    <input>
        <net-file value="osm.net.xml"/>
        <osm-files value="osm_bbox.osm.xml.gz"/>
        <osm.keep-full-type value="true"/>
        <type-file value="/home/marcos/Proj/sumo/data/typemap/osmPolyconvert.typ.xml"/>
    </input>

    <output>
        <output-file value="osm.poly.xml"/>
    </output>

    <report>
        <verbose value="true"/>
    </report>

</configuration>
-->

<additional xmlns:xsi="http://www.w3.org/2001/XMLSchema-instance" xsi:noNamespaceSchemaLocation="http://sumo.dlr.de/xsd/additional_file.xsd">
    <location netOffset="-507024.52,-5398501.10" convBoundary="-1449.19,-1993.03,2338.70,4654.68" origBoundary="9.075873,48.721556,9.127372,48.781356" projParameter="+proj=utm +zone=32 +ellps=WGS84 +datum=WGS84 +units=m +no_defs"/>

    <poly id="1001754730" type="amenity.parking_space" color="237,199,199" fill="1" layer="-1.00" shape="897.822838,841.484712 901.505216,841.901215 902.174973,836.144046 898.492606,835.716427 897.822838,841.484712"/>
    <poly id="1001754731" type="amenity.parking_space" color="237,199,199" fill="1" layer="-1.00" shape="894.133123,841.057086 897.822838,841.484712 898.492606,835.716427 894.810239,835.288810 894.133123,841.057086"/>
    <poly id="1001754732" type="amenity.parking_space" color="237,199,199" fill="1" layer="-1.00" shape="890.450759,840.629472 894.133123,841.057086 894.810239,835.288810 891.120520,834.861186 890.450759,840.629472"/>
    <poly id="1001754733" type="amenity.parking_space" color="237,199,199" fill="1" layer="-1.00" shape="905.194929,842.328846 905.864690,836.571677 902.174973,836.144046 901.505216,841.901215 905.194929,842.328846"/>
    <poly id="1001754734" type="amenity.parking_space" color="237,199,199" fill="1" layer="-1.00" shape="963.291040,847.958288 966.797187,848.230074 967.201700,842.939409 963.695550,842.667623 963.291040,847.958288"/>
    <poly id="1001754735" type="amenity.parking_space" color="237,199,199" fill="1" layer="-1.00" shape="963.291040,847.958288 959.821633,847.697674 960.226140,842.407008 963.695550,842.667623 963.291040,847.958288"/>
    <poly id="1001758226" type="amenity.parking_space" color="237,199,199" fill="1" layer="-1.00" shape="803.432449,857.670399 807.468474,857.520415 807.263199,851.862056 803.227170,852.012040 803.432449,857.670399"/>
    <poly id="1001758227" type="amenity.parking_space" color="237,199,199" fill="1" layer="-1.00" shape="799.161187,857.820057 803.432449,857.670399 803.227170,852.012040 798.955903,852.161699 799.161187,857.820057"/>
    <poly id="100322420" type="building.detached" color="255,230,230" fill="1" layer="-1.00" shape="1270.542069,535.676833 1273.684248,528.667258 1263.552994,524.161377 1260.410826,531.170959 1270.542069,535.676833"/>
    <poly id="100322490" type="building.apartments" color="255,230,230" fill="1" layer="-1.00" shape="1380.373206,488.208231 1400.763711,495.164155 1401.140268,494.086464 1405.135067,482.431735 1384.744521,475.475795 1380.373206,488.208231"/>
    <poly id="100322527" type="building.apartments" color="255,230,230" fill="1" layer="-1.00" shape="1318.720377,494.140987 1347.351579,496.573645 1348.406669,484.191940 1319.782757,481.759288 1318.720377,494.140987"/>
    <poly id="100322567" type="building.apartments" color="255,230,230" fill="1" layer="-1.00" shape="1401.140268,494.086464 1410.501498,497.290856 1415.020562,484.125140 1405.651960,480.920730 1405.135067,482.431735 1401.140268,494.086464"/>
    <poly id="103342748" type="building.yes" color="255,230,230" fill="1" layer="-1.00" shape="878.322820,886.399382 877.542482,892.400952 904.685375,895.907512 905.465742,889.905946 878.322820,886.399382"/>
    <poly id="103342749" type="building.yes" color="255,230,230" fill="1" layer="-1.00" shape="903.187434,920.683081 909.287741,921.480957 912.840285,894.162723 906.739933,893.375959 903.187434,920.683081"/>
    <poly id="103342750" type="building.yes" color="255,230,230" fill="1" layer="-1.00" shape="880.909830,918.083792 893.610268,919.724672 896.575598,896.929833 883.875110,895.288946 880.909830,918.083792"/>
    <poly id="103342751" type="building.yes" color="255,230,230" fill="1" layer="-1.00" shape="897.097129,954.400582 904.505671,955.355927 908.221846,926.659530 900.813268,925.704179 897.097129,954.400582"/>
    <poly id="103342752" type="building.yes" color="255,230,230" fill="1" layer="-1.00" shape="879.329354,959.755658 878.137926,970.569900 882.422929,971.042821 882.579356,969.586838 897.168943,971.197046 898.203991,961.827673 879.329354,959.755658"/>
    <poly id="103342753" type="building.yes" color="255,230,230" fill="1" layer="-1.00" shape="878.052310,953.095338 892.913506,955.006051 896.822889,924.798135 881.961630,922.876296 878.052310,953.095338"/>
    <poly id="103342754" type="building.apartments" color="255,230,230" fill="1" layer="-1.00" shape="714.176379,925.165358 713.015434,908.812037 696.459174,909.889685 697.627395,926.331941 710.728371,925.405150 714.176379,925.165358"/>
    <poly id="103342755" type="building.yes" color="255,230,230" fill="1" layer="-1.00" shape="888.714120,997.997027 887.343845,974.084452 876.463391,974.713828 877.841078,998.615294 888.714120,997.997027"/>
    <poly id="103342756" type="building.apartments" color="255,230,230" fill="1" layer="-1.00" shape="710.387809,948.448263 709.491360,932.195352 703.735005,932.509774 692.582531,933.116899 693.471678,949.369798 710.387809,948.448263"/>
    <poly id="104300049" type="amenity.bench" color="237,199,199" fill="0" layer="-1.00" shape="796.507179,689.463725 826.503610,687.615950"/>
    <poly id="104300053" type="amenity.bench" color="237,199,199" fill="0" layer="-1.00" shape="763.437366,691.674217 776.898162,691.437275"/>
    <poly id="1052215003" type="building.roof" color="255,230,230" fill="1" layer="-1.00" shape="1146.982201,652.247161 1150.005693,645.815377 1146.420621,644.131623 1143.397132,650.563409 1146.982201,652.247161"/>
    <poly id="1052215411" type="building.carport" color="255,230,230" fill="1" layer="-1.00" shape="1122.238664,656.235139 1116.394476,651.013215 1113.471244,654.243740 1119.315416,659.476776 1122.238664,656.235139"/>
    <poly id="1062855755" type="building.yes" color="255,230,230" fill="1" layer="-1.00" shape="1359.302295,326.693809 1359.325082,321.291444 1363.780317,321.309228 1363.764878,326.711604 1359.302295,326.693809"/>
    <poly id="1062855756" type="natural.water" color="181,209,209" fill="1" layer="-4.00" shape="1318.122591,342.617224 1319.995380,338.985065 1318.081521,335.636284 1319.165972,333.136788 1320.894179,332.794764 1322.168208,336.287101 1324.487460,338.936176 1328.822931,340.376608 1333.308454,339.794146 1335.868748,338.564084 1338.483893,339.990841 1336.855313,342.545101 1335.909364,345.834040 1331.568678,347.895150 1328.613526,347.690655 1324.571821,346.461866 1320.435650,344.488164 1318.122591,342.617224"/>
    <poly id="106704493" type="building.university" color="255,230,230" fill="1" layer="-1.00" shape="579.730939,487.008845 624.859074,484.502466 623.883083,467.037824 621.630492,463.822212 603.426242,464.831192 603.132056,459.517321 584.508718,460.548024 578.776335,469.933301 579.730939,487.008845"/>
    <poly id="106705366" type="leisure.pitch" color="207,245,201" fill="1" layer="-2.00" shape="747.473852,969.797954 745.451875,927.709761 723.264734,928.768406 724.893933,962.641282 725.286877,970.856591 747.473852,969.797954"/>
    <poly id="106705366#1" type="sport.multi" color="79,230,125" fill="1" layer="-2.00" shape="747.473852,969.797954 745.451875,927.709761 723.264734,928.768406 724.893933,962.641282 725.286877,970.856591 747.473852,969.797954"/>
    <poly id="106705367" type="amenity.kindergarten" color="237,199,199" fill="1" layer="-2.00" shape="735.712253,985.644262 745.658811,985.213406 745.594718,983.723766 751.652338,983.465386 752.001676,991.291574 749.685950,991.399521 749.935383,997.057940 736.239582,997.661449 735.712253,985.644262"/>
    <poly id="106705367#1" type="building.yes" color="255,230,230" fill="1" layer="-1.00" shape="735.712253,985.644262 745.658811,985.213406 745.594718,983.723766 751.652338,983.465386 752.001676,991.291574 749.685950,991.399521 749.935383,997.057940 736.239582,997.661449 735.712253,985.644262"/>
    <poly id="106952031" type="building.dormitory" color="255,230,230" fill="1" layer="-1.00" shape="476.319634,768.816925 476.889017,777.310351 470.036979,777.768055 469.928865,776.156082 463.606180,776.570038 463.152244,769.688596 476.319634,768.816925"/>
    <poly id="106952050" type="building.yes" color="255,230,230" fill="1" layer="-1.00" shape="429.391302,971.344362 428.508686,960.660659 426.287894,933.601228 409.812272,934.946615 412.915790,972.689739 429.391302,971.344362"/>
    <poly id="106952056" type="building.retail" color="255,230,230" fill="1" layer="-1.00" shape="471.142874,467.653997 471.481489,472.823412 471.654390,475.469262 470.448608,475.545462 470.801659,480.914984 476.117407,480.566384 476.038265,479.276817 496.845406,477.926319 496.456352,472.012060 496.146600,467.265093 483.074085,468.125729 482.994885,466.880626 471.142874,467.653997"/>
    <poly id="106952059" type="amenity.parking" color="184,184,179" fill="1" layer="-1.00" shape="497.550848,905.261591 519.200791,904.657087 518.744744,888.482614 497.094739,889.087120 497.550848,905.261591"/>
    <poly id="106952062" type="building.yes" color="255,230,230" fill="1" layer="-1.00" shape="1003.921470,940.146241 1005.244925,929.710160 997.263044,928.709396 995.939604,939.145479 1003.921470,940.146241"/>
    <poly id="106952063" type="building.yes" color="255,230,230" fill="1" layer="-1.00" shape="914.630925,880.748181 917.155802,862.777098 911.062862,861.923644 908.537989,879.905846 914.630925,880.748181"/>
    <poly id="106952064" type="building.university" color="255,230,230" fill="1" layer="-1.00" shape="602.642959,613.585083 641.271234,611.147806 640.378761,597.173710 644.422457,596.923574 646.929560,596.760266 646.296185,586.854999 643.789093,587.007192 601.124286,589.705741 602.642959,613.585083"/>
    <poly id="106960512" type="amenity.parking" color="184,184,179" fill="1" layer="-1.00" shape="1062.376126,986.895527 1063.844843,891.188393 1068.564203,891.250788 1067.095389,986.969038 1062.376126,986.895527"/>
    <poly id="106960516" type="amenity.parking" color="184,184,179" fill="1" layer="-1.00" shape="959.821633,847.697674 963.291040,847.958288 966.797187,848.230074 985.415813,849.646169 985.827695,844.355516 967.201700,842.939409 963.695550,842.667623 960.226140,842.407008 959.821633,847.697674"/>
    <poly id="106960518" type="amenity.parking" color="184,184,179" fill="1" layer="-1.00" shape="890.450759,840.629472 894.133123,841.057086 897.822838,841.484712 901.505216,841.901215 905.194929,842.328846 945.583273,847.021553 946.253090,841.253273 905.864690,836.571677 902.174973,836.144046 898.492606,835.716427 894.810239,835.288810 891.120520,834.861186 890.450759,840.629472"/>
    <poly id="106960523" type="building.university" color="255,230,230" fill="1" layer="-1.00" shape="549.793418,672.950906 548.707531,660.499461 557.742584,649.562372 571.160553,648.446710 572.243861,662.765651 572.884236,662.177369 576.213841,662.626527 578.098375,687.829170 600.359894,686.814513 600.387180,699.175599 593.446487,699.877585 593.300765,704.323807 585.683237,705.402828 586.155370,709.605337 578.641856,709.884153 578.500983,705.348613 577.449734,705.347186 577.635817,709.071316 575.606577,709.257535 570.475004,709.472898 570.608352,714.141820 560.735592,714.017284 547.246076,702.916335 546.304318,692.610483 550.523744,692.827391 550.205166,689.214244 545.589107,688.741131 545.452779,686.262068 550.922808,685.847051 549.793418,672.950906"/>
    <poly id="107921233" type="building.university" color="255,230,230" fill="1" layer="-1.00" shape="575.687299,812.325679 576.257975,819.751976 582.639536,819.260415 582.068869,811.834117 575.687299,812.325679"/>
    <poly id="107921239" type="building.university" color="255,230,230" fill="1" layer="-1.00" shape="251.621876,460.928438 259.680066,460.394222 288.994003,458.409287 292.876060,458.147570 290.445332,422.295151 286.239744,422.578680 249.183519,425.087143 249.703004,432.668960 251.621876,460.928438"/>
    <poly id="1081860888" type="landuse.grass" color="194,194,130" fill="1" layer="-3.00" shape="1265.508627,782.456890 1273.447163,778.088916 1270.645878,773.416024 1270.008207,772.136734 1269.222193,771.746508 1268.772973,772.279414 1267.886521,775.179392 1266.351923,778.912116 1264.723141,781.710952 1265.508627,782.456890"/>
    <poly id="1084477923" type="landuse.construction" color="194,194,130" fill="1" layer="-3.00" shape="942.856007,448.929627 960.589499,458.492441 976.694330,434.727072 960.146801,423.498490 942.856007,448.929627"/>
    <poly id="1088271494" type="building.residential" color="255,230,230" fill="1" layer="-1.00" shape="1145.096852,599.098565 1150.508042,603.830780 1158.064316,594.526558 1152.873135,590.161487 1145.096852,599.098565"/>
    <poly id="113815782" type="tourism.artwork" color="207,245,201" fill="1" layer="-2.00" shape="186.151905,400.283592 181.286158,376.522347 205.105023,371.673085 209.970673,395.434351 186.151905,400.283592"/>
    <poly id="116352165" type="building.dormitory" color="255,230,230" fill="1" layer="-1.00" shape="341.695581,751.452889 332.086744,751.929370 332.230048,754.764151 335.560420,754.601785 335.804042,759.415355 331.253280,759.631699 328.922750,759.750916 328.729516,755.748884 326.296051,755.879084 325.966553,749.275717 328.179451,749.167461 327.978968,745.087607 330.140409,744.979283 329.968398,741.610894 334.761798,741.372635 334.840648,742.906754 341.258798,742.592823 341.695581,751.452889"/>
    <poly id="143024313" type="building.university" color="255,230,230" fill="1" layer="-1.00" shape="391.678992,455.887524 435.425742,452.944265 433.889920,430.332183 433.428374,423.595245 389.688748,426.538530 391.678992,455.887524"/>
    <poly id="143024315" type="building.university" color="255,230,230" fill="1" layer="-1.00" shape="408.718212,546.139053 405.509867,498.535885 413.707950,497.813103 408.735752,494.127093 411.342508,490.918014 413.874244,488.842674 417.390828,486.979848 420.884206,485.984045 423.207148,497.192107 438.345671,496.133993 440.643860,531.408272 441.465223,543.959384 408.718212,546.139053"/>
    <poly id="143024327" type="building.university" color="255,230,230" fill="1" layer="-1.00" shape="314.626740,471.737594 311.326068,421.010757 319.553412,420.476848 365.557437,417.502654 366.631062,434.022513 355.830401,434.719704 352.235088,434.948406 352.818798,443.897591 353.373538,452.513257 356.976192,452.284565 367.865054,451.576377 368.945841,468.229640 319.354293,471.432539 314.626740,471.737594"/>
    <poly id="143344326" type="building.university" color="255,230,230" fill="1" layer="-1.00" shape="942.286730,807.910583 940.077013,769.590402 920.550303,770.707630 922.243618,800.034182 922.767505,809.027814 942.286730,807.910583"/>
    <poly id="145030244" type="building.yes" color="255,230,230" fill="1" layer="-1.00" shape="1031.079749,881.614724 1004.539899,877.941674 1002.705286,891.111572 1055.277712,898.379235 1057.112446,885.209354 1044.904553,883.535465 1031.079749,881.614724"/>
    <poly id="146615524" type="building.semidetached_house" color="255,230,230" fill="1" layer="-1.00" shape="1099.887332,526.378317 1106.859599,524.376426 1109.455823,523.624303 1111.240680,529.785186 1101.672198,532.539197 1099.887332,526.378317"/>
    <poly id="146615525" type="building.residential" color="255,230,230" fill="1" layer="-1.00" shape="1094.192567,570.133954 1085.037784,561.394596 1099.564448,546.253347 1109.475415,555.705254 1099.197037,566.417331 1098.440856,565.704807 1094.192567,570.133954"/>
    <poly id="146615526" type="building.semidetached_house" color="255,230,230" fill="1" layer="-1.00" shape="1095.632052,520.391713 1097.555881,527.053016 1099.887332,526.378317 1106.859599,524.376426 1104.935780,517.715120 1095.632052,520.391713"/>
    <poly id="146615527" type="building.residential" color="255,230,230" fill="1" layer="-1.00" shape="1073.625228,588.812504 1070.049616,585.628146 1071.426573,584.096120 1063.548479,577.070514 1070.153481,569.710111 1072.502965,571.803323 1079.468791,564.043274 1089.564209,573.039655 1082.914980,580.466668 1081.916454,579.575939 1073.625228,588.812504"/>
    <poly id="157603797" type="leisure.nature_reserve" color="207,245,201" fill="1" layer="-2.00" shape="-343.120913,870.080761 -385.767034,902.677902 -425.866876,933.321942 -426.463316,940.413280 -429.989907,982.483380 -425.573129,1014.702899 -440.135440,1102.246911 -474.062140,1267.714076 -456.493829,1355.295829 -492.579882,1539.969189 -336.509285,1766.498653 -298.525201,1791.633099 -283.009772,1798.054608 -270.696489,1845.090405 -326.902161,1870.434237 -364.545505,1892.866035 -393.095398,1901.680547 -419.302297,1905.695827 -500.707380,1910.602640 -647.583865,1914.968831 -666.367802,1913.035511 -686.719631,1906.698517 -753.920099,1874.764229 -816.449899,1845.637173 -857.469185,1838.466458 -898.404724,1841.989789 -971.211259,1854.027135 -1026.400683,1866.873507 -1044.526780,1868.088007 -1176.426969,1853.342217 -1265.146916,1852.716709 -1331.016784,1838.354102 -1358.705254,1905.066867 -1340.205745,1991.968775 -1397.654188,2068.189205 -1427.044585,2236.601530 -1406.453149,2362.689507 -1393.223717,2413.025255 -1338.145987,2583.634843 -1312.023345,2644.032844 -1319.665898,2773.605174 -1449.193252,3090.305251 -1196.820815,3115.284444 -1112.512126,3133.947821 -1005.921415,3204.626320 -899.176331,3245.927206 -950.990304,3370.359844 -884.567151,3459.194299 -848.828364,3526.574907 -788.513753,3581.733141 -756.312238,3604.223621 -752.791767,3662.375864 -715.085294,3800.157813 -752.490657,3852.650459 -853.938712,3983.129651 -854.489521,4022.913574 -765.301345,4178.482444 -739.329718,4243.429613 -638.885921,4347.423353 -634.631386,4423.895929 -644.076864,4460.668363 -633.256616,4487.370494 -344.341925,4264.807671 -318.335401,4302.355644 -91.137541,4372.208254 -50.083979,4389.255803 24.661827,4411.170387 87.812133,4469.432032 151.585281,4510.732004 204.454311,4530.197674 241.525177,4535.092313 281.052371,4526.662180 324.213160,4526.107308 362.490637,4540.708703 408.661314,4563.802437 541.715322,4620.350598 555.670804,4654.684946 740.953355,4578.148850 777.177236,4562.959037 820.671159,4544.711596 874.244794,4531.547663 930.908192,4525.892014 1124.295110,4550.881421 1154.102603,4448.100797 1203.990322,4329.798385 1217.474682,4287.688145 1307.406899,4311.609807 1358.079505,4329.526848 1447.546738,4334.619365 1509.808737,4248.475124 1584.499234,4160.372017 1652.716419,4083.653891 1711.550190,3971.239220 1822.075809,3848.646474 1752.062795,3788.164651 1667.665716,3758.386284 1629.029436,3670.420229 1646.131682,3601.071068 1558.118883,3502.435615 1482.312717,3405.398593 1229.337412,3058.442161 1441.507670,2891.861934 1481.874771,2731.228889 1505.468888,2559.365576 1501.347813,2143.128636 1450.514756,1800.754102 1433.744668,1570.303686 1455.871729,1403.440483 1463.733825,1235.599792 415.491853,1335.576876 397.503959,1175.459520 368.129376,1053.533111 338.858873,851.438044 282.417973,720.461530 201.156734,748.179611 62.605395,736.886585 -36.604736,739.652138 -132.334734,740.111590 -257.761489,829.620745 -306.288140,848.926502 -343.120913,870.080761"/>
    <poly id="167802012" type="building.residential" color="255,230,230" fill="1" layer="-1.00" shape="1145.096852,599.098565 1152.873135,590.161487 1144.422135,582.857029 1136.645856,591.794119 1145.096852,599.098565"/>
    <poly id="167802013" type="building.detached" color="255,230,230" fill="1" layer="-1.00" shape="1041.084324,692.945206 1051.424961,689.803142 1048.571379,680.450429 1038.230726,683.592498 1041.084324,692.945206"/>
    <poly id="167802014" type="building.detached" color="255,230,230" fill="1" layer="-1.00" shape="1037.824021,680.134820 1048.157121,677.137249 1045.282257,667.239820 1034.941805,670.226270 1037.824021,680.134820"/>
    <poly id="177513222" type="landuse.meadow" color="194,194,130" fill="1" layer="-3.00" shape="714.437967,842.228835 699.521382,842.908561 700.586855,864.564104 627.488971,868.143200 627.968804,872.056707 665.067754,879.244011 697.807157,886.581176 716.744986,885.706911 714.437967,842.228835"/>
    <poly id="177513223" type="landuse.meadow" color="194,194,130" fill="1" layer="-3.00" shape="713.211240,830.910998 709.538395,786.297204 703.627283,786.778153 699.546117,776.979283 693.723487,777.260275 693.680436,776.493209 687.857790,776.785324 687.914994,777.952588 666.440363,779.001324 668.156687,813.952551 698.019549,812.492968 698.970617,831.825096 713.211240,830.910998"/>
    <poly id="177513382" type="landuse.forest" color="140,196,107" fill="1" layer="-3.00" shape="718.007312,908.485453 716.769853,894.310772 697.469337,891.671863 628.881779,876.393215 546.572815,880.160880 549.786165,928.442247 564.129433,927.527909 568.873449,1001.578383 619.695515,998.312683 621.595676,947.203651 620.588174,915.176921 652.685149,913.775727 653.366756,931.362260 685.501978,928.816353 696.459174,909.889685 713.015434,908.812037 718.007312,908.485453"/>
    <poly id="179389875" type="building.elevator" color="255,230,230" fill="1" layer="-1.00" shape="713.123568,718.738787 712.014984,717.670115 711.745070,716.157960 712.423316,714.769390 713.784320,714.048726 715.313116,714.262043 716.421701,715.330715 716.691613,716.842871 716.013367,718.231441 714.652363,718.952104 713.123568,718.738787"/>
    <poly id="179389876" type="building.elevator" color="255,230,230" fill="1" layer="-1.00" shape="724.968533,722.701357 723.859951,721.632683 723.590041,720.120526 724.268289,718.731958 725.629294,718.011297 727.158089,718.224617 728.266670,719.293292 728.536579,720.805449 727.858330,722.194016 726.497326,722.914677 724.968533,722.701357"/>
    <poly id="179389877" type="building.roof" color="255,230,230" fill="1" layer="-1.00" shape="716.600930,713.307841 713.474705,709.346208 712.106702,704.486605 712.701738,699.474087 715.177890,695.075551 719.159320,691.957442 724.027847,690.596899 729.055401,691.193005 733.470184,693.666879 736.596404,697.628524 737.964386,702.488133 737.361993,707.489522 734.885813,711.899165 730.911739,715.017273 726.035880,716.377800 721.015701,715.781707 716.600930,713.307841"/>
    <poly id="221018875" type="amenity.parking" color="184,184,179" fill="1" layer="-1.00" shape="847.563192,589.824250 847.239915,584.454743 880.616298,594.695153 886.457148,597.271205 888.311561,601.186673 888.634640,606.667343 885.973212,617.201601 878.056110,642.912971 870.408828,670.225444 852.300796,665.986973 847.563192,589.824250"/>
    <poly id="221018876" type="amenity.bicycle_parking" color="237,199,199" fill="1" layer="-1.00" shape="761.396859,488.347713 757.701727,486.352807 753.026287,486.179574 748.730035,488.241197 746.498760,490.917070 745.234440,496.095395 745.957631,499.431212 747.989771,502.513176 778.056225,519.718144 779.787763,516.919312 754.400297,502.611001 750.969693,500.716511 749.289941,497.990748 748.955542,495.266853 749.709099,492.611163 751.873978,490.101940 754.911919,488.883392 759.791968,489.946194 761.396859,488.347713"/>
    <poly id="221018881" type="amenity.parking" color="184,184,179" fill="1" layer="-1.00" shape="763.635166,591.685616 771.757000,592.864096 779.526251,593.830893 810.722050,591.584525 813.196530,577.959709 784.235079,569.982411 777.863028,568.706304 776.281295,574.806813 775.668917,576.384439 767.151126,574.449511 763.635166,591.685616"/>
    <poly id="22604778" type="landuse.residential" color="235,235,227" fill="1" layer="-3.00" shape="1407.268830,955.078505 1466.732607,983.625432 1493.209417,1004.063597 1644.694617,1073.593502 1781.099942,1114.780064 1853.637418,1124.687808 1905.343953,1156.628636 1938.644413,1197.210997 1980.114020,1235.939186 2036.977253,1259.863730 2096.583634,1278.146358 2183.533758,1292.117003 2256.362515,1288.568891 2249.705103,1242.793006 2273.359266,1198.768120 2241.908763,1143.357989 2195.656178,1094.882316 2104.827001,1028.059400 2020.647640,979.912571 1987.764350,967.454049 1944.722357,954.590384 1923.735473,945.085938 1862.097824,925.701459 1861.099367,892.440620 1779.566776,860.175368 1779.182775,847.246787 1719.934714,845.419892 1723.368323,873.293214 1690.753047,862.570964 1679.403018,786.708451 1639.020875,778.108727 1613.142687,736.194583 1531.544489,744.473114 1514.199466,727.250113 1364.236626,664.706965 1367.172101,653.395218 1347.514904,648.030104 1321.511145,594.778761 1258.450221,594.273887 1286.128731,663.734625 1294.659221,686.613009 1323.819730,683.454960 1313.500620,701.658807 1315.277557,737.644121 1331.572030,764.647067 1340.731172,779.834151 1328.027509,795.021963 1324.600140,796.139576 1320.272356,799.645802 1318.032007,803.377460 1316.444831,807.843752 1316.974092,812.802301 1320.707420,823.423695 1334.660034,853.035439 1345.084218,872.615264 1353.540427,885.800432 1363.867909,901.144930 1407.268830,955.078505"/>
    <poly id="22740782" type="amenity.parking" color="184,184,179" fill="1" layer="-1.00" shape="864.762028,858.790220 868.852464,934.807571 799.644219,938.312089 795.493433,862.728232 864.762028,858.790220"/>
    <poly id="22740784" type="amenity.parking" color="184,184,179" fill="1" layer="-1.00" shape="789.559573,884.840902 728.842103,887.813458 730.386561,919.162872 791.096341,916.190322 789.559573,884.840902"/>
    <poly id="22741025" type="leisure.fitness_station" color="207,245,201" fill="1" layer="-2.00" shape="756.363195,994.888117 775.109774,993.847044 775.791466,1005.808871 787.789279,1005.125277 787.100415,993.052279 792.481796,992.748536 790.907031,957.041564 754.185985,958.769026 756.363195,994.888117"/>
    <poly id="22741025#1" type="sport.fitness" color="79,230,125" fill="1" layer="-2.00" shape="756.363195,994.888117 775.109774,993.847044 775.791466,1005.808871 787.789279,1005.125277 787.100415,993.052279 792.481796,992.748536 790.907031,957.041564 754.185985,958.769026 756.363195,994.888117"/>
    <poly id="22741026" type="building.university" color="255,230,230" fill="1" layer="-1.00" shape="753.328936,940.704244 754.185985,958.769026 790.907031,957.041564 790.000286,937.798406 785.978960,937.992887 785.493358,927.754323 767.570158,928.596417 750.058642,929.428024 750.601497,940.833851 753.328936,940.704244"/>
    <poly id="22741026#1" type="sport.multi" color="79,230,125" fill="1" layer="-2.00" shape="753.328936,940.704244 754.185985,958.769026 790.907031,957.041564 790.000286,937.798406 785.978960,937.992887 785.493358,927.754323 767.570158,928.596417 750.058642,929.428024 750.601497,940.833851 753.328936,940.704244"/>
    <poly id="228977747" type="amenity.parking" color="184,184,179" fill="1" layer="-1.00" shape="799.161187,857.820057 798.955903,852.161699 803.227170,852.012040 807.263199,851.862056 825.576015,851.198490 825.788638,856.845744 807.468474,857.520415 803.432449,857.670399 799.161187,857.820057"/>
    <poly id="228977748" type="amenity.parking" color="184,184,179" fill="1" layer="-1.00" shape="860.070528,854.581747 836.692399,855.482643 836.500904,850.502382 859.879054,849.601485 860.070528,854.581747"/>
    <poly id="22962790" type="amenity.parking" color="184,184,179" fill="1" layer="-1.00" shape="307.850490,543.216016 270.539890,538.431877 240.059376,482.245126 267.544043,490.462238 290.684484,492.515522 301.901658,493.664015 309.234930,513.349010 307.850490,543.216016"/>
    <poly id="22975248" type="building.university" color="255,230,230" fill="1" layer="-1.00" shape="584.090138,871.618997 547.691285,873.915169 545.286999,836.161802 575.112908,834.734863 581.979587,834.277307 584.090138,871.618997"/>
    <poly id="23490089" type="natural.water" color="181,209,209" fill="1" layer="-4.00" shape="1329.398486,373.481059 1338.078112,370.503789 1347.181667,364.270163 1348.562309,360.359377 1349.557525,353.624539 1344.042372,349.536709 1337.029240,349.159410 1332.894077,351.443147 1326.732935,351.622933 1321.508825,349.558681 1312.547274,344.354145 1308.063327,343.880601 1308.772564,356.387211 1310.000725,366.004419 1316.725597,372.339458 1322.905029,374.671915 1329.398486,373.481059"/>
    <poly id="23572436" type="building.university" color="255,230,230" fill="1" layer="-1.00" shape="600.926371,762.126533 597.569556,765.512361 594.794265,762.929662 595.561546,771.723503 580.402301,772.325404 581.333918,795.459174 581.981091,811.511632 542.061544,813.102752 541.072774,788.623869 532.295832,788.245193 531.901611,791.657290 525.835754,792.427235 519.372929,793.196653 517.588483,769.928353 513.493578,770.089583 513.507450,754.315925 520.013902,753.935621 520.364535,750.134403 523.150302,750.427173 535.332578,749.621010 535.392737,743.173781 541.605811,742.304000 540.842325,736.077980 534.755057,736.325433 534.364005,726.487200 545.457896,726.001956 545.623980,733.661140 555.137241,733.229360 554.860764,725.670071 566.469224,725.207797 566.789236,733.178440 572.950022,732.931122 572.722542,727.206047 585.455835,726.689757 586.027639,733.282352 592.490195,732.768680 592.302701,730.089457 595.424412,726.614378 598.765851,729.142267 602.217984,725.956659 608.914572,731.735009 605.844437,735.121223 609.287740,738.416265 606.364439,741.947187 609.470212,744.774895 606.929259,748.250758 609.799861,751.022565 607.067579,754.642676 610.269109,757.326006 604.275319,764.521043 600.926371,762.126533"/>